t_auction_case_sellers_85.m
function [baseMVA, bus, gen, branch, areas, gencost] = t_auction_case
%T_AUCTION_CASE    Power flow data for testing auction code.
%   Please see CASEFORMAT for details on the case file format.

%   MATPOWER

%%-----  Power Flow Data  -----%%
%% system MVA base
baseMVA = 100;

%% bus data
%	bus_i	type	Pd	Qd	Gs	Bs	area	Vm	Va	baseKV	zone	Vmax	Vmin
bus = [
	1	3	0	0	0	0	1	1	0	135	1	1.05	0.95;
	2	2	0	0	0	0	1	1	0	135	1	1.1	0.95;
	3	1	0	0	0	0	1	1	0	135	1	1.05	0.95;
	4	1	0	0	0	0	1	1	0	135	1	1.05	0.95;
	5	1	0	0	0	0	1	1	0	135	1	1.05	0.95;
	6	1	0	0	0	0	1	1	0	135	1	1.05	0.95;
	7	1	0	0	0	0	1	1	0	135	1	1.05	0.95;
	8	1	0	0	0	0	1	1	0	135	1	1.05	0.95;
	9	1	0	0	0	0	1	1	0	135	1	1.05	0.95;
	10	1	0	0	0	0	3	1	0	135	1	1.05	0.95;
	11	1	0	0	0	0	1	1	0	135	1	1.05	0.95;
	12	1	0	0	0	0	2	1	0	135	1	1.05	0.95;
	13	1	0	0	0	0	2	1	0	135	1	1.1	0.95;
	14	1	0	0	0	0	2	1	0	135	1	1.05	0.95;
	15	1	0	0	0	0	2	1	0	135	1	1.05	0.95;
	16	1	0	0	0	0	2	1	0	135	1	1.05	0.95;
	17	1	0	0	0	0	2	1	0	135	1	1.05	0.95;
	18	1	0	0	0	0	2	1	0	135	1	1.05	0.95;
	19	1	0	0	0	0	2	1	0	135	1	1.05	0.95;
	20	1	0	0	0	0	2	1	0	135	1	1.05	0.95;
	21	1	0	0   0	0	3	1	0	135	1	1.05	0.95;
	22	1	0	0	0	0	3	1	0	135	1	1.1	0.95;
	23	1	0	0	0	0	2	1	0	135	1	1.1	0.95;
	24	1	0	0	0	0	3	1	0	135	1	1.05	0.95;
	25	1	0	0	0	0	3	1	0	135	1	1.05	0.95;
	26	1	0	0	0	0	3	1	0	135	1	1.05	0.95;
	27	1	0	0	0	0	3	1	0	135	1	1.1	0.95;
	28	1	0	0	0	0	1	1	0	135	1	1.05	0.95;
	29	1	0	0	0	0	3	1	0	135	1	1.05	0.95;
	30	1	0	0	0	0	3	1	0	135	1	1.05	0.95;
	31	1	0	0	0	0	1	1	0	135	1	1.1	0.9;
	32	1	0	0	0	0	1	1	0	135	1	1.1	0.9;
	33	1	0	0	0	0	1	1	0	135 1	1.1	0.9;
	34	1	0	0	0	0	1	1	0	135	1	1.1	0.9;
	35	1	0	0	0	0	1	1	0	135	1	1.1	0.9;
	36	1	0	0	0	0	1	1	0	135	1	1.1	0.9;
	37	1	0	0	0	0	1	1	0	135	1	1.1	0.9;
	38	1	0	0	0	0	1	1	0	135	1	1.1	0.9;
	39	1	0	0	0	0	1	1	0	135	1	1.1	0.9;
	40	1	0	0   0	0	1	1	0	135	1	1.1	0.9;
	41	1	0	0	0	0	1	1	0	135	1	1.1	0.9;
	42	1	0	0	0	0	1	1	0	135	1	1.1	0.9;
	43	1	0	0	0	0	1	1	0	135	1	1.1	0.9;
	44	1	0	0   0	0	1	1	0	135	1	1.1	0.9;
	45	1	0	0	0	0	1	1	0	135	1	1.1	0.9;
	46	1	0	0	0	0	1	1	0	135	1	1.1	0.9;
	47	1	0	0	0	0	1	1	0	135	1	1.1	0.9;
	48	1	0	0	0	0	1	1	0	135	1	1.1	0.9;
	49	1	0	0	0	0	1	1	0	135	1	1.1	0.9;
	50	1	0	0	0	0	1	1	0	135	1	1.1	0.9;
	51	1	0	0	0	0	1	1	0	135	1	1.1	0.9;
	52	1	0	0	0	0	1	1	0	135	1	1.1	0.9;
	53	1	0	0	0	0	1	1	0	135	1	1.1	0.9;
	54	1	0	0	0	0	1	1	0	135	1	1.1	0.9;
	55	1	0	0	0	0	1	1	0	135	1	1.1	0.9;
	56	1	0	0	0	0	1	1	0	135	1	1.1	0.9;
	57	1	0	0	0	0	1	1	0	135	1	1.1	0.9;
	58	1	0	0	0	0	1	1	0	135	1	1.1	0.9;
	59	1	0	0	0	0	1	1	0	135	1	1.1	0.9;
	60	1	0	0	0	0	1	1	0	135	1	1.1	0.9;
	61	1	0	0	0	0	1	1	0	135	1	1.1	0.9;
	62	1	0	0	0	0	1	1	0	135	1	1.1	0.9;
	63	1	0	0	0	0	1	1	0	135	1	1.1	0.9;
	64	1	0	0	0	0	1	1	0	135	1	1.1	0.9;
	65	1	0	0	0	0	1	1	0	135	1	1.1	0.9;
	66	1	0	0	0	0	1	1	0	135	1	1.1	0.9;
	67	1	0	0	0	0	1	1	0	135	1	1.1	0.9;
	68	1	0	0	0	0	1	1	0	135	1	1.1	0.9;
	69	1	0	0	0	0	1	1	0	135	1	1.1	0.9;
	70	1	0	0	0	0	1	1	0	135	1	1.1	0.9;
	71	1	0	0	0	0	1	1	0	135	1	1.1	0.9;
	72	1	0	0	0	0	1	1	0	135	1	1.1	0.9;
	73	1	0	0	0	0	1	1	0	135	1	1.1	0.9;
	74	1	0	0	0	0	1	1	0	135	1	1.1	0.9;
	75	1	0	0	0	0	1	1	0	135	1	1.1	0.9;
	76	1	0	0	0	0	1	1	0	135	1	1.1	0.9;
	77	1	0	0	0	0	1	1	0	135	1	1.1	0.9;
	78	1	0	0	0	0	1	1	0	135	1	1.1	0.9;
	79	1	0	0	0	0	1	1	0	135	1	1.1	0.9;
	80	1	0	0	0	0	1	1	0	135	1	1.1	0.9;
	81	1	0	0	0	0	1	1	0	135	1	1.1	0.9;
	82	1	0	0	0	0	1	1	0	135	1	1.1	0.9;
	83	1	0	0	0	0	1	1	0	135	1	1.1	0.9;
	84	1	0	0	0	0	1	1	0	135	1	1.1	0.9;
	85	1	0	0	0	0	1	1	0	135	1	1.1	0.9;
];
%% generator data
%	bus	Pg	Qg	Qmax	Qmin	Vg	mBase	status	Pmax	Pmin
gen = [
    1	0	0	70	-15	1	100	1	60	1;
    2	-30	-15	0	-60	1	100	1	0	-450;
    NaN NaN NaN NaN NaN NaN NaN NaN NaN NaN;
    NaN NaN NaN NaN NaN NaN NaN NaN NaN NaN;
    NaN NaN NaN NaN NaN NaN NaN NaN NaN NaN;
    NaN NaN NaN NaN NaN NaN NaN NaN NaN NaN;
    NaN NaN NaN NaN NaN NaN NaN NaN NaN NaN;
    NaN NaN NaN NaN NaN NaN NaN NaN NaN NaN;
    NaN NaN NaN NaN NaN NaN NaN NaN NaN NaN;
    NaN NaN NaN NaN NaN NaN NaN NaN NaN NaN;
    NaN NaN NaN NaN NaN NaN NaN NaN NaN NaN;
    NaN NaN NaN NaN NaN NaN NaN NaN NaN NaN;
    NaN NaN NaN NaN NaN NaN NaN NaN NaN NaN;
    NaN NaN NaN NaN NaN NaN NaN NaN NaN NaN;
    NaN NaN NaN NaN NaN NaN NaN NaN NaN NaN;
    NaN NaN NaN NaN NaN NaN NaN NaN NaN NaN;
    NaN NaN NaN NaN NaN NaN NaN NaN NaN NaN;
    NaN NaN NaN NaN NaN NaN NaN NaN NaN NaN;
    NaN NaN NaN NaN NaN NaN NaN NaN NaN NaN;
    NaN NaN NaN NaN NaN NaN NaN NaN NaN NaN;
    NaN NaN NaN NaN NaN NaN NaN NaN NaN NaN;
    NaN NaN NaN NaN NaN NaN NaN NaN NaN NaN;
    NaN NaN NaN NaN NaN NaN NaN NaN NaN NaN;
    NaN NaN NaN NaN NaN NaN NaN NaN NaN NaN;
    NaN NaN NaN NaN NaN NaN NaN NaN NaN NaN;
    NaN NaN NaN NaN NaN NaN NaN NaN NaN NaN;
    NaN NaN NaN NaN NaN NaN NaN NaN NaN NaN;
    NaN NaN NaN NaN NaN NaN NaN NaN NaN NaN;
    NaN NaN NaN NaN NaN NaN NaN NaN NaN NaN;
    NaN NaN NaN NaN NaN NaN NaN NaN NaN NaN;
    NaN NaN NaN NaN NaN NaN NaN NaN NaN NaN;
    NaN NaN NaN NaN NaN NaN NaN NaN NaN NaN;
    NaN NaN NaN NaN NaN NaN NaN NaN NaN NaN;
    NaN NaN NaN NaN NaN NaN NaN NaN NaN NaN;
    NaN NaN NaN NaN NaN NaN NaN NaN NaN NaN;
    NaN NaN NaN NaN NaN NaN NaN NaN NaN NaN;
    NaN NaN NaN NaN NaN NaN NaN NaN NaN NaN;
    NaN NaN NaN NaN NaN NaN NaN NaN NaN NaN;
    NaN NaN NaN NaN NaN NaN NaN NaN NaN NaN;
    NaN NaN NaN NaN NaN NaN NaN NaN NaN NaN;
    NaN NaN NaN NaN NaN NaN NaN NaN NaN NaN;
    NaN NaN NaN NaN NaN NaN NaN NaN NaN NaN;
    NaN NaN NaN NaN NaN NaN NaN NaN NaN NaN;
    NaN NaN NaN NaN NaN NaN NaN NaN NaN NaN;
    NaN NaN NaN NaN NaN NaN NaN NaN NaN NaN;
    NaN NaN NaN NaN NaN NaN NaN NaN NaN NaN;
    NaN NaN NaN NaN NaN NaN NaN NaN NaN NaN;
    NaN NaN NaN NaN NaN NaN NaN NaN NaN NaN;
    NaN NaN NaN NaN NaN NaN NaN NaN NaN NaN;
    NaN NaN NaN NaN NaN NaN NaN NaN NaN NaN;
    NaN NaN NaN NaN NaN NaN NaN NaN NaN NaN;
    NaN NaN NaN NaN NaN NaN NaN NaN NaN NaN;
    NaN NaN NaN NaN NaN NaN NaN NaN NaN NaN;
    NaN NaN NaN NaN NaN NaN NaN NaN NaN NaN;
    NaN NaN NaN NaN NaN NaN NaN NaN NaN NaN;
    NaN NaN NaN NaN NaN NaN NaN NaN NaN NaN;
    NaN NaN NaN NaN NaN NaN NaN NaN NaN NaN;
    NaN NaN NaN NaN NaN NaN NaN NaN NaN NaN;
    NaN NaN NaN NaN NaN NaN NaN NaN NaN NaN;
    NaN NaN NaN NaN NaN NaN NaN NaN NaN NaN;
    NaN NaN NaN NaN NaN NaN NaN NaN NaN NaN;
    NaN NaN NaN NaN NaN NaN NaN NaN NaN NaN;
    NaN NaN NaN NaN NaN NaN NaN NaN NaN NaN;
    NaN NaN NaN NaN NaN NaN NaN NaN NaN NaN;
    NaN NaN NaN NaN NaN NaN NaN NaN NaN NaN;
    NaN NaN NaN NaN NaN NaN NaN NaN NaN NaN;
    NaN NaN NaN NaN NaN NaN NaN NaN NaN NaN;
    NaN NaN NaN NaN NaN NaN NaN NaN NaN NaN;
    NaN NaN NaN NaN NaN NaN NaN NaN NaN NaN;
    NaN NaN NaN NaN NaN NaN NaN NaN NaN NaN;
    NaN NaN NaN NaN NaN NaN NaN NaN NaN NaN;
    NaN NaN NaN NaN NaN NaN NaN NaN NaN NaN;
    NaN NaN NaN NaN NaN NaN NaN NaN NaN NaN;
    NaN NaN NaN NaN NaN NaN NaN NaN NaN NaN;
    NaN NaN NaN NaN NaN NaN NaN NaN NaN NaN;
    NaN NaN NaN NaN NaN NaN NaN NaN NaN NaN;
    NaN NaN NaN NaN NaN NaN NaN NaN NaN NaN;
    NaN NaN NaN NaN NaN NaN NaN NaN NaN NaN;
    NaN NaN NaN NaN NaN NaN NaN NaN NaN NaN;
    NaN NaN NaN NaN NaN NaN NaN NaN NaN NaN;
    NaN NaN NaN NaN NaN NaN NaN NaN NaN NaN;
    NaN NaN NaN NaN NaN NaN NaN NaN NaN NaN;
    NaN NaN NaN NaN NaN NaN NaN NaN NaN NaN;
    NaN NaN NaN NaN NaN NaN NaN NaN NaN NaN;
    NaN NaN NaN NaN NaN NaN NaN NaN NaN NaN;
    NaN NaN NaN NaN NaN NaN NaN NaN NaN NaN;
    NaN NaN NaN NaN NaN NaN NaN NaN NaN NaN;
    NaN NaN NaN NaN NaN NaN NaN NaN NaN NaN;
    NaN NaN NaN NaN NaN NaN NaN NaN NaN NaN;
    NaN NaN NaN NaN NaN NaN NaN NaN NaN NaN;
    NaN NaN NaN NaN NaN NaN NaN NaN NaN NaN;
    NaN NaN NaN NaN NaN NaN NaN NaN NaN NaN;
];

%% branch data
%	fbus	tbus	r	x	b	rateA	rateB	rateC	ratio	angle	status
branch = [  %% (r and x specified in ohms here, converted to p.u. below)
	1	2	0.108	0.075	0	250	250	250	0	0	1;
	2	3	0.163	0.112	0	250	250	250	0	0	1;
	3	4	0.217	0.149	0	250	250	250	0	0	1;
	4	5	0.108	0.074	0	250	250	250	0	0	1;
	5	6	0.435	0.298	0	250	250	250	0	0	1;
	6	7	0.272	0.186	0	250	250	250	0	0	1;
	7	8	1.197	0.82	0	250	250	250	0	0	1;
	8	9	0.108	0.074	0	250	250	250	0	0	1;
	9	10	0.598	0.41	0	250	250	250	0	0	1;
	10	11	0.544	0.373	0	250	250	250	0	0	1;
	11	12	0.544	0.373	0	250	250	250	0	0	1;
	12	13	0.598	0.41	0	250	250	250	0	0	1;
	13	14	0.272	0.186	0	250	250	250	0	0	1;
	14	15	0.326	0.223	0	250	250	250	0	0	1;
	2	16	0.728	0.302	0	250	250	250	0	0	1;
	3	17	0.455	0.189	0	250	250	250	0	0	1;
	5	18	0.82	0.34	0	250	250	250	0	0	1;
	18	19	0.637	0.264	0	250	250	250	0	0	1;
	19	20	0.455	0.189	0	250	250	250	0	0	1;
	20	21	0.819	0.34	0	250	250	250	0	0	1;
	21	22	1.548	0.642	0	250	250	250	0	0	1;
	19	23	0.182	0.075	0	250	250	250	0	0	1;
	7	24	0.91	0.378	0	250	250	250	0	0	1;
	8	25	0.455	0.189	0	250	250	250	0	0	1;
	25	26	0.364	0.151	0	250	250	250	0	0	1;
	26	27	0.546	0.226	0	250	250	250	0	0	1;
	27	28	0.273	0.113	0	250	250	250	0	0	1;
	28	29	0.546	0.226	0	250	250	250	0	0	1;
	29	30	0.546	0.226	0	250	250	250	0	0	1;
	30	31	0.273	0.113	0	250	250	250	0	0	1;
	31	32	0.182	0.075	0	250	250	250	0	0	1;
	32	33	0.182	0.075	0	250	250	250	0	0	1;
	33	34	0.819	0.34	0	250	250	250	0	0	1;
	34	35	0.637	0.264	0	250	250	250	0	0	1;
	35	36	0.182	0.075	0	250	250	250	0	0	1;
	26	37	0.364	0.151	0	250	250	250	0	0	1;
	27	38	1.002	0.416	0	250	250	250	0	0	1;
	29	39	0.546	0.226	0	250	250	250	0	0	1;
	32	40	0.455	0.189	0	250	250	250	0	0	1;
	40	41	1.002	0.416	0	250	250	250	0	0	1;
	41	42	0.273	0.113	0	250	250	250	0	0	1;
	41	43	0.455	0.189	0	250	250	250	0	0	1;
	34	44	1.002	0.416	0	250	250	250	0	0	1;
	44	45	0.911	0.378	0	250	250	250	0	0	1;
	45	46	0.911	0.378	0	250	250	250	0	0	1;
	46	47	0.546	0.226	0	250	250	250	0	0	1;
	35	48	0.637	0.264	0	250	250	250	0	0	1;
	48	49	0.182	0.075	0	250	250	250	0	0	1;
	49	50	0.364	0.151	0	250	250	250	0	0	1;
	50	51	0.455	0.189	0	250	250	250	0	0	1;
	48	52	1.366	0.567	0	250	250	250	0	0	1;
	52	53	0.455	0.189	0	250	250	250	0	0	1;
	53	54	0.546	0.226	0	250	250	250	0	0	1;
	52	55	0.546	0.226	0	250	250	250	0	0	1;
	49	56	0.546	0.226	0	250	250	250	0	0	1;
	9	57	0.273	0.113	0	250	250	250	0	0	1;
	57	58	0.819	0.34	0	250	250	250	0	0	1;
	58	59	0.182	0.075	0	250	250	250	0	0	1;
	58	60	0.546	0.226	0	250	250	250	0	0	1;
	60	61	0.728	0.302	0	250	250	250	0	0	1;
	61	62	1.002	0.415	0	250	250	250	0	0	1;
	60	63	0.182	0.075	0	250	250	250	0	0	1;
	63	64	0.728	0.302	0	250	250	250	0	0	1;
	64	65	0.182	0.075	0	250	250	250	0	0	1;
	65	66	0.182	0.075	0	250	250	250	0	0	1;
	64	67	0.455	0.189	0	250	250	250	0	0	1;
	67	68	0.91	0.378	0	250	250	250	0	0	1;
	68	69	1.092	0.453	0	250	250	250	0	0	1;
	69	70	0.455	0.189	0	250	250	250	0	0	1;
	70	71	0.546	0.226	0	250	250	250	0	0	1;
	67	72	0.182	0.075	0	250	250	250	0	0	1;
	68	73	1.184	0.491	0	250	250	250	0	0	1;
	73	74	0.273	0.113	0	250	250	250	0	0	1;
	73	75	1.002	0.416	0	250	250	250	0	0	1;
	70	76	0.546	0.226	0	250	250	250	0	0	1;
	65	77	0.091	0.037	0	250	250	250	0	0	1;
	10	78	0.637	0.264	0	250	250	250	0	0	1;
	67	79	0.546	0.226	0	250	250	250	0	0	1;
	12	80	0.728	0.302	0	250	250	250	0	0	1;
	80	81	0.364	0.151	0	250	250	250	0	0	1;
	81	82	0.091	0.037	0	250	250	250	0	0	1;
	81	83	1.092	0.453	0	250	250	250	0	0	1;
	83	84	1.002	0.416	0	250	250	250	0	0	1;
	13	85	0.819	0.34	0	250	250	250	0	0	1;
];


%%-----  OPF Data  -----%%
%% area data
%	area	refbus
areas = [
	1	8;
	2	23;
	3	26;
];

%% generator cost data
%	1	startup	shutdown	n	x1	y1	...	xn	yn
%	2	startup	shutdown	n	c(n-1)	...	c0
gencost = [
    1	0	0	4	-30	-3000	-20	-2000	-10	-1000	0	0;
	1	0	0	4	-30	-3000	-20	-2000	-10	-1000	0	0;
    NaN NaN NaN NaN NaN NaN NaN NaN NaN NaN NaN NaN;
    NaN NaN NaN NaN NaN NaN NaN NaN NaN NaN NaN NaN;
    NaN NaN NaN NaN NaN NaN NaN NaN NaN NaN NaN NaN;
    NaN NaN NaN NaN NaN NaN NaN NaN NaN NaN NaN NaN;
    NaN NaN NaN NaN NaN NaN NaN NaN NaN NaN NaN NaN;
    NaN NaN NaN NaN NaN NaN NaN NaN NaN NaN NaN NaN;
    NaN NaN NaN NaN NaN NaN NaN NaN NaN NaN NaN NaN;
    NaN NaN NaN NaN NaN NaN NaN NaN NaN NaN NaN NaN;
    NaN NaN NaN NaN NaN NaN NaN NaN NaN NaN NaN NaN;
    NaN NaN NaN NaN NaN NaN NaN NaN NaN NaN NaN NaN;
    NaN NaN NaN NaN NaN NaN NaN NaN NaN NaN NaN NaN;
    NaN NaN NaN NaN NaN NaN NaN NaN NaN NaN NaN NaN;
    NaN NaN NaN NaN NaN NaN NaN NaN NaN NaN NaN NaN;
    NaN NaN NaN NaN NaN NaN NaN NaN NaN NaN NaN NaN;
    NaN NaN NaN NaN NaN NaN NaN NaN NaN NaN NaN NaN;
    NaN NaN NaN NaN NaN NaN NaN NaN NaN NaN NaN NaN;
    NaN NaN NaN NaN NaN NaN NaN NaN NaN NaN NaN NaN;
    NaN NaN NaN NaN NaN NaN NaN NaN NaN NaN NaN NaN;
    NaN NaN NaN NaN NaN NaN NaN NaN NaN NaN NaN NaN;
    NaN NaN NaN NaN NaN NaN NaN NaN NaN NaN NaN NaN;
    NaN NaN NaN NaN NaN NaN NaN NaN NaN NaN NaN NaN;
    NaN NaN NaN NaN NaN NaN NaN NaN NaN NaN NaN NaN;
    NaN NaN NaN NaN NaN NaN NaN NaN NaN NaN NaN NaN;
    NaN NaN NaN NaN NaN NaN NaN NaN NaN NaN NaN NaN;
    NaN NaN NaN NaN NaN NaN NaN NaN NaN NaN NaN NaN;
    NaN NaN NaN NaN NaN NaN NaN NaN NaN NaN NaN NaN;
    NaN NaN NaN NaN NaN NaN NaN NaN NaN NaN NaN NaN;
    NaN NaN NaN NaN NaN NaN NaN NaN NaN NaN NaN NaN;
    NaN NaN NaN NaN NaN NaN NaN NaN NaN NaN NaN NaN;
    NaN NaN NaN NaN NaN NaN NaN NaN NaN NaN NaN NaN;
    NaN NaN NaN NaN NaN NaN NaN NaN NaN NaN NaN NaN;
    NaN NaN NaN NaN NaN NaN NaN NaN NaN NaN NaN NaN;
    NaN NaN NaN NaN NaN NaN NaN NaN NaN NaN NaN NaN;
    NaN NaN NaN NaN NaN NaN NaN NaN NaN NaN NaN NaN;
    NaN NaN NaN NaN NaN NaN NaN NaN NaN NaN NaN NaN;
    NaN NaN NaN NaN NaN NaN NaN NaN NaN NaN NaN NaN;
    NaN NaN NaN NaN NaN NaN NaN NaN NaN NaN NaN NaN;
    NaN NaN NaN NaN NaN NaN NaN NaN NaN NaN NaN NaN;
    NaN NaN NaN NaN NaN NaN NaN NaN NaN NaN NaN NaN;
    NaN NaN NaN NaN NaN NaN NaN NaN NaN NaN NaN NaN;
    NaN NaN NaN NaN NaN NaN NaN NaN NaN NaN NaN NaN;
    NaN NaN NaN NaN NaN NaN NaN NaN NaN NaN NaN NaN;
    NaN NaN NaN NaN NaN NaN NaN NaN NaN NaN NaN NaN;
    NaN NaN NaN NaN NaN NaN NaN NaN NaN NaN NaN NaN;
    NaN NaN NaN NaN NaN NaN NaN NaN NaN NaN NaN NaN;
    NaN NaN NaN NaN NaN NaN NaN NaN NaN NaN NaN NaN;
    NaN NaN NaN NaN NaN NaN NaN NaN NaN NaN NaN NaN;
    NaN NaN NaN NaN NaN NaN NaN NaN NaN NaN NaN NaN;
    NaN NaN NaN NaN NaN NaN NaN NaN NaN NaN NaN NaN;
    NaN NaN NaN NaN NaN NaN NaN NaN NaN NaN NaN NaN;
    NaN NaN NaN NaN NaN NaN NaN NaN NaN NaN NaN NaN;
    NaN NaN NaN NaN NaN NaN NaN NaN NaN NaN NaN NaN;
    NaN NaN NaN NaN NaN NaN NaN NaN NaN NaN NaN NaN;
    NaN NaN NaN NaN NaN NaN NaN NaN NaN NaN NaN NaN;
    NaN NaN NaN NaN NaN NaN NaN NaN NaN NaN NaN NaN;
    NaN NaN NaN NaN NaN NaN NaN NaN NaN NaN NaN NaN;
    NaN NaN NaN NaN NaN NaN NaN NaN NaN NaN NaN NaN;
    NaN NaN NaN NaN NaN NaN NaN NaN NaN NaN NaN NaN;
    NaN NaN NaN NaN NaN NaN NaN NaN NaN NaN NaN NaN;
    NaN NaN NaN NaN NaN NaN NaN NaN NaN NaN NaN NaN;
    NaN NaN NaN NaN NaN NaN NaN NaN NaN NaN NaN NaN;
    NaN NaN NaN NaN NaN NaN NaN NaN NaN NaN NaN NaN;
    NaN NaN NaN NaN NaN NaN NaN NaN NaN NaN NaN NaN;
    NaN NaN NaN NaN NaN NaN NaN NaN NaN NaN NaN NaN;
    NaN NaN NaN NaN NaN NaN NaN NaN NaN NaN NaN NaN;
    NaN NaN NaN NaN NaN NaN NaN NaN NaN NaN NaN NaN;
    NaN NaN NaN NaN NaN NaN NaN NaN NaN NaN NaN NaN;
    NaN NaN NaN NaN NaN NaN NaN NaN NaN NaN NaN NaN;
    NaN NaN NaN NaN NaN NaN NaN NaN NaN NaN NaN NaN;
    NaN NaN NaN NaN NaN NaN NaN NaN NaN NaN NaN NaN;
    NaN NaN NaN NaN NaN NaN NaN NaN NaN NaN NaN NaN;
    NaN NaN NaN NaN NaN NaN NaN NaN NaN NaN NaN NaN;
    NaN NaN NaN NaN NaN NaN NaN NaN NaN NaN NaN NaN;
    NaN NaN NaN NaN NaN NaN NaN NaN NaN NaN NaN NaN;
    NaN NaN NaN NaN NaN NaN NaN NaN NaN NaN NaN NaN;
    NaN NaN NaN NaN NaN NaN NaN NaN NaN NaN NaN NaN;
    NaN NaN NaN NaN NaN NaN NaN NaN NaN NaN NaN NaN;
    NaN NaN NaN NaN NaN NaN NaN NaN NaN NaN NaN NaN;
    NaN NaN NaN NaN NaN NaN NaN NaN NaN NaN NaN NaN;
    NaN NaN NaN NaN NaN NaN NaN NaN NaN NaN NaN NaN;
    NaN NaN NaN NaN NaN NaN NaN NaN NaN NaN NaN NaN;
    NaN NaN NaN NaN NaN NaN NaN NaN NaN NaN NaN NaN;
    NaN NaN NaN NaN NaN NaN NaN NaN NaN NaN NaN NaN;
    NaN NaN NaN NaN NaN NaN NaN NaN NaN NaN NaN NaN;
    NaN NaN NaN NaN NaN NaN NaN NaN NaN NaN NaN NaN;
    NaN NaN NaN NaN NaN NaN NaN NaN NaN NaN NaN NaN;
    NaN NaN NaN NaN NaN NaN NaN NaN NaN NaN NaN NaN;
    NaN NaN NaN NaN NaN NaN NaN NaN NaN NaN NaN NaN;
    NaN NaN NaN NaN NaN NaN NaN NaN NaN NaN NaN NaN;
    NaN NaN NaN NaN NaN NaN NaN NaN NaN NaN NaN NaN;
];
